Please go through the initial set-up process from the following links before proceeding:

Installion of Sahi-Pro:
https://servicemax.atlassian.net/wiki/spaces/QS/pages/121738657/Installation+-+Sahi-Pro

Git Process:
https://servicemax.atlassian.net/wiki/spaces/QS/pages/121971449/Repository+-+GitHub

NOTE: Download/clone in the sahipro source scripts under /auto/sahi_pro/userdata/scripts

<<<<<<< HEAD
Test
Test
=======

- Execute scripts
- Git training

New line..
Bhupendra
Noor

Yadav
safi
<<<<<<< HEAD
<<<<<<< HEAD
prasad
=======

extra
>>>>>>> upstream/master
=============




=======

prasad
=======

extra

=============




>>>>>>> 97d6f0929167bbd9ef6133496f04ce9274a9706f
>>>>>>> a0cbda185471dc5720d34018ffd518d28a3b9134
